/*--------------------------------*- C++ -*----------------------------------*\
| =========                 |                                                 |
| \\      /  F ield         | OpenFOAM: The Open Source CFD Toolbox           |
|  \\    /   O peration     | Version:  v2406                                 |
|   \\  /    A nd           | Web:      www.OpenFOAM.com                      |
|    \\/     M anipulation  |                                                 |
\*---------------------------------------------------------------------------*/
FoamFile
{
    version     2.0;
    format      ascii;
    class       dictionary;
    location    "constant";
    object      transportProperties;
}

// * * * * * * * * * * * * * * sediment properties * * * * * * * * * * * * * //

rhoS    [1 -3 0 0 0 0 0] 2650; // sediment density

dS      [0 1 0 0 0 0 0] 0.12e-3; // sediment diameter, meter

CsMax   [0 0 0 0 0 0 0] 0.6; // max volumic sediment concentration

// * * * * * * * * * * * * * * salinity properties * * * * * * * * * * * * * //

betaS   0.0254; // salinity density coef.: rhok = 1 + betaS * S

// ************************************************************************* //

transportModel  Newtonian;

nu      nu [ 0 2 -1 0 0 0 0 ] 1e-6;  // fluid kinematic viscosity

Sc      1;  // Schmidt number

// ************************************************************************* //
